/---------------------------------------------------------------------
/
/ This case demonstrate KHIONE's ability to model static border ice
/    growth in a meandering trapezoidal flume.
/
/ Reaching a steady state hydrodynamic condition.
/
/ Steering file for the hydrodynamics: TELEMAC-2D
/
TITLE = 'BORDER ICE GROWTH IN A MEANDERING TRAPEZOIDAL FLUME'
/
/----------------------------------------------------------------------
/  FILES
/----------------------------------------------------------------------
/
GEOMETRY FILE                = 'geo_sineflume.slf'
BOUNDARY CONDITIONS FILE     = 'geo_sineflume.cli'
3D RESULT FILE                 = 'ini_border-ice.slf'
/
/----------------------------------------------------------------------
/  GENERAL INFORMATIONS - OUTPUTS
/----------------------------------------------------------------------
/
VARIABLES FOR 3D GRAPHIC PRINTOUTS  = 'Z,U,V,TA1'
/
GRAPHIC PRINTOUT PERIOD          = 100
LISTING PRINTOUT PERIOD          = 60
MASS-BALANCE                     = YES
TIME STEP                        = 1.
NUMBER OF TIME STEPS             = 14400
NUMBER OF HORIZONTAL LEVELS      = 10
/
/----------------------------------------------------------------------
/  INITIAL CONDITIONS
/----------------------------------------------------------------------
/
ORIGINAL DATE OF TIME      = 2016;12;2
ORIGINAL HOUR OF TIME      = 0;0;0
INITIAL TIME SET TO ZERO   = YES
/
/COMPUTATION CONTINUED      = YES
/PREVIOUS COMPUTATION FILE  = 'ini_border-ice.slf'
COMPUTATION CONTINUED      = NO
INITIAL CONDITIONS         = 'CONSTANT ELEVATION'
INITIAL ELEVATION          = 2.5
/
/----------------------------------------------------------------------
/  BOUNDARY CONDITIONS
/----------------------------------------------------------------------
/
PRESCRIBED FLOWRATES          = -10.0  ;  10.0
PRESCRIBED ELEVATIONS         =  2.5   ;  2.5
VELOCITY PROFILES             =  4     ;  4
/
/ OPTION FOR LIQUID BOUNDARIES  =  2    ;  1
/
/----------------------------------------------------------------------
/  PHYSICAL PARAMETERS
/----------------------------------------------------------------------
/
TIDAL FLATS = YES
TREATMENT OF NEGATIVE DEPTHS = 2
OPTION FOR THE TREATMENT OF TIDAL FLATS = 1
/
LAW OF BOTTOM FRICTION  = 5
FRICTION COEFFICIENT FOR THE BOTTOM   = 0.5
LAW OF FRICTION ON LATERAL BOUNDARIES = 5
FRICTION COEFFICIENT FOR LATERAL SOLID BOUNDARIES = 0.5
/
/
/COEFFICIENT FOR HORIZONTAL DIFFUSION OF VELOCITIES = 0.1
/
/----------------------------------------------------------------------
/  NUMERICAL PARAMETERS
/----------------------------------------------------------------------
/
MASS-LUMPING FOR DEPTH = 1.
NON-HYDROSTATIC VERSION = NO
/SCHEME FOR ADVECTION OF VELOCITIES = 1
/SCHEME FOR ADVECTION OF DEPTH = 1
/
