/----------------------------------------------------------------------
/
/ Steering file for the hydrodynamics: TELEMAC-3D
/
TITLE = 'THERMAL BUDGET PROCESSES IN A BOX'
/
/----------------------------------------------------------------------
/  FILES
/----------------------------------------------------------------------
/
GEOMETRY FILE                = 'geo_reservoir.slf'
BOUNDARY CONDITIONS FILE     = 'geo_reservoir.cli'
3D RESULT FILE               = 'r3d_reservoir_multiclass.slf'
FORTRAN FILE                 = 'user_fortran_multi'
/
/----------------------------------------------------------------------
/  GENERAL INFORMATIONS - OUTPUTS
/----------------------------------------------------------------------
/
VARIABLES FOR 3D GRAPHIC PRINTOUTS = 'U,V,Z,TA*'
/
GRAPHIC PRINTOUT PERIOD          = 100
LISTING PRINTOUT PERIOD          = 100
MASS-BALANCE                     = YES
/
DURATION                         = 10000
TIME STEP                        = 10.
NUMBER OF HORIZONTAL LEVELS      = 5
/
/
/----------------------------------------------------------------------
/  INITIAL CONDITIONS
/----------------------------------------------------------------------
/
INITIAL CONDITIONS         = 'CONSTANT ELEVATION'
INITIAL ELEVATION          = 1.
/
INITIAL VALUES OF TRACERS  = 0.0 ; 0.
/
/----------------------------------------------------------------------
/  PHYSICAL PARAMETERS
/----------------------------------------------------------------------
/
LAW OF BOTTOM FRICTION           = 0
LATITUDE OF ORIGIN POINT         = 44.73
/
/----------------------------------------------------------------------
/  NUMERICAL PARAMETERS
/----------------------------------------------------------------------
/
TIDAL FLATS                       = NO
/
/----------------------------------------------------------------------
/  THERMIC PROCESS
/----------------------------------------------------------------------
/
COUPLING WITH                = 'KHIONE'
KHIONE STEERING FILE         = 'ice_reservoir_buoyancy_multi.cas'
AIR TEMPERATURE = 0.
/
/----------------------------------------------------------------------
/
